<?xml version="1.0" encoding="UTF-8"?>

<!-- generated on 2024-09-29 19:58:30 by Eclipse SUMO netconvert Version 1.20.0
<configuration xmlns:xsi="http://www.w3.org/2001/XMLSchema-instance" xsi:noNamespaceSchemaLocation="http://sumo.dlr.de/xsd/netconvertConfiguration.xsd">

    <input>
        <node-files value="my_nodes.nod.xml"/>
        <edge-files value="my_edges.edg.xml"/>
    </input>

    <output>
        <output-file value="my_network.net.xml"/>
    </output>

</configuration>
-->

<net version="1.20" junctionCornerDetail="5" limitTurnSpeed="5.50" xmlns:xsi="http://www.w3.org/2001/XMLSchema-instance" xsi:noNamespaceSchemaLocation="http://sumo.dlr.de/xsd/net_file.xsd">

    <location netOffset="0.00,0.00" convBoundary="0.00,0.00,100.00,0.00" origBoundary="0.00,0.00,100.00,0.00" projParameter="!"/>

    <edge id=":1_0" function="internal">
        <lane id=":1_0_0" index="0" speed="3.65" length="4.67" shape="0.00,1.60 -1.20,0.80 -1.60,0.00 -1.20,-0.80 0.00,-1.60"/>
    </edge>
    <edge id=":2_0" function="internal">
        <lane id=":2_0_0" index="0" speed="3.65" length="4.67" shape="100.00,-1.60 101.20,-0.80 101.60,0.00 101.20,0.80 100.00,1.60"/>
    </edge>

    <edge id="e1" from="1" to="2" priority="1">
        <lane id="e1_0" index="0" speed="13.89" length="100.00" shape="0.00,-1.60 100.00,-1.60"/>
    </edge>
    <edge id="e2" from="2" to="1" priority="1">
        <lane id="e2_0" index="0" speed="13.89" length="100.00" shape="100.00,1.60 0.00,1.60"/>
    </edge>

    <junction id="1" type="priority" x="0.00" y="0.00" incLanes="e2_0" intLanes=":1_0_0" shape="0.00,0.00 0.00,3.20 0.00,0.00">
        <request index="0" response="0" foes="0" cont="0"/>
    </junction>
    <junction id="2" type="priority" x="100.00" y="0.00" incLanes="e1_0" intLanes=":2_0_0" shape="100.00,0.00 100.00,-3.20 100.00,0.00">
        <request index="0" response="0" foes="0" cont="0"/>
    </junction>

    <connection from="e1" to="e2" fromLane="0" toLane="0" via=":2_0_0" dir="t" state="M"/>
    <connection from="e2" to="e1" fromLane="0" toLane="0" via=":1_0_0" dir="t" state="M"/>

    <connection from=":1_0" to="e1" fromLane="0" toLane="0" dir="t" state="M"/>
    <connection from=":2_0" to="e2" fromLane="0" toLane="0" dir="t" state="M"/>

</net>
