<?xml version="1.0" encoding="UTF-8"?>

<!-- generated on 2024-09-29 19:58:30.801600 by randomTrips.py v1_20_0+0002-343658e7c64
<configuration>
    <net-file value="my_network.net.xml"/>
    <output-trip-file value="routes.rou.xml"/>
    <trip-attributes value="type=&quot;car&quot;"/>
</configuration>
-->

<routes xmlns:xsi="http://www.w3.org/2001/XMLSchema-instance" xsi:noNamespaceSchemaLocation="http://sumo.dlr.de/xsd/routes_file.xsd">
</routes>
